case56_sce/case56_forstac.m
function mpc = case56_forstac
%CASE56_FORSTAC

%% MATPOWER Case Format : Version 2
mpc.version = '2';

%%-----  Power Flow Data  -----%%
%% system MVA base
mpc.baseMVA = 1;

%% bus data
%	bus_i	type	Pd	Qd	Gs	Bs	area	Vm	Va	baseKV	zone	Vmax	Vmin
mpc.bus = [
	1	1	0	0	0	0	1	1	0	12	1	1.1	0.9;
	2	1	0.0513	0.024845724	0	0	1	1	0	12	1	1.1	0.9;
	3	1	0	0	0	0	1	1	0	12	1	1.1	0.9;
	4	1	0.1089	0.0527426772	0	0	1	1	0	12	1	1.1	0.9;
	5	1	0.0441	0.0213586048	0	0	1	1	0	12	1	1.1	0.9;
	6	1	0.0477	0.0231021644	0	0	1	1	0	12	1	1.1	0.9;
	7	1	0.0423	0.020486825	0	0	1	1	0	12	1	1.1	0.9;
	8	1	0.0612	0.0296405128	0	0	1	1	0	12	1	1.1	0.9;
	9	1	0.0432	0.0209227149	0	0	1	1	0	12	1	1.1	0.9;
	10	1	0.0603	0.0292046229	0	0	1	1	0	12	1	1.1	0.9;
	11	1	0.0846	0.0409736501	0	0	1	1	0	12	1	1.1	0.9;
	12	1	0	0	0	0	1	1	0	12	1	1.1	0.9;
	13	1	0.0513	0.024845724	0	0	1	1	0	12	1	1.1	0.9;
	14	1	0	0	0	0	1	1	0	12	1	1.1	0.9;
	15	1	0.0477	0.0231021644	0	0	1	1	0	12	1	1.1	0.9;
	16	1	0.0513	0.024845724	0	0	1	1	0	12	1	1.1	0.9;
	17	1	0.1008	0.0488196682	0	0	1	1	0	12	1	1.1	0.9;
	18	2	0.0783	0.0379224208	0	0	1	1	0	12	1	1.1	0.9;
	19	1	0	0	0	0	1	1	0	12	1	1.1	0.9;
	20	2	0	0	0	0	1	1	0	12	1	1.1	0.9;
	21	1	0.0567	0.0274610633	0	0	1	1	0	12	1	1.1	0.9;
	22	1	0	0	0	0	1	1	0	12	1	1.1	0.9;
	23	1	0.1215	0.0588451357	0	0	1	1	0	12	1	1.1	0.9;
	24	1	0.09	0.0435889894	0	0	1	1	0	12	1	1.1	0.9;
	25	1	0	0	0	0	1	1	0	12	1	1.1	0.9;
	26	1	0.0432	0.0209227149	0	0	1	1	0	12	1	1.1	0.9;
	27	1	0.0342	0.016563816	0	0	1	1	0	12	1	1.1	0.9;
	28	1	0.0396	0.0191791554	0	0	1	1	0	12	1	1.1	0.9;
	29	2	0	0	0	0	1	1	0	12	1	1.1	0.9;
	30	1	0.0477	0.0231021644	0	0	1	1	0	12	1	1.1	0.9;
	31	1	0.1507	0.0972034464	0	0	1	1	0	12	1	1.1	0.9;
	32	1	0.1107	0.053614457	0	0	1	1	0	12	1	1.1	0.9;
	33	1	0.0603	0.0292046229	0	0	1	1	0	12	1	1.1	0.9;
	34	1	0.0846	0.0409736501	0	0	1	1	0	12	1	1.1	0.9;
	35	1	0.0873	0.0422813198	0	0	1	1	0	12	1	1.1	0.9;
	36	1	0.2529	0.12248506	0	0	1	1	0	12	1	1.1	0.9;
	37	1	0.1053	0.0509991176	0	0	1	1	0	12	1	1.1	0.9;
	38	1	0.1179	0.0571015762	0	0	1	1	0	12	1	1.1	0.9;
	39	1	0.027	0.0130766968	0	0	1	1	0	12	1	1.1	0.9;
	40	1	0.0414	0.0150509351	0	0	1	1	0	12	1	1.1	0.9;
	41	1	0.0486	0.0235380543	0	0	1	1	0	12	1	1.1	0.9;
	42	1	0.0747	0.0361788612	0	0	1	1	0	12	1	1.1	0.9;
	43	1	0.0513	0.024845724	0	0	1	1	0	12	1	1.1	0.9;
	44	2	0	0	0	0	1	1	0	12	1	1.1	0.9;
	45	1	0.1206	0.0584092458	0	0	1	1	0	12	1	1.1	0.9;
	46	1	0.0405	0.0196150452	0	0	1	1	0	12	1	1.1	0.9;
	47	1	0.1764	0.0854344193	0	0	1	1	0	12	1	1.1	0.9;
	48	1	0	0	0	0	1	1	0	12	1	1.1	0.9;
	49	1	0.0405	0.0196150452	0	0	1	1	0	12	1	1.1	0.9;
	50	1	0	0	0	0	1	1	0	12	1	1.1	0.9;
	51	1	0.2835	0.137305317	0	0	1	1	0	12	1	1.1	0.9;
	52	2	0	0	0	0	1	1	0	12	1	1.1	0.9;
	53	1	0.0549	0.0265892836	0	0	1	1	0	12	1	1.1	0.9;
	54	1	0.0495	0.0239739442	0	0	1	1	0	12	1	1.1	0.9;
	55	1	0.117	0.0566656863	0	0	1	1	0	12	1	1.1	0.9;
	56	3	0	0	0	0	1	1	0	12	1	1.1	0.9;
];

%% generator data
%	bus	Pg	Qg	Qmax	Qmin	Vg	mBase	status	Pmax	Pmin	Pc1	Pc2	Qc1min	Qc1max	Qc2min	Qc2max	ramp_agc	ramp_10	ramp_30	ramp_q	apf
mpc.gen = [
	56	1.31327311	0.261937809	38.35	-38.35	1	1	1	38.35	-38.35	0	0	0	0	0	0	0	0	0	0	0;
];

%% branch data
%	fbus	tbus	r	x	b	rateA	rateB	rateC	ratio	angle	status	angmin	angmax
mpc.branch = [
	56	1	0.00111111111	0.00269444444	0	5.19482122	0	0	0	0	1	-360	360;
	1	2	0.00572222222	0.0021875	0	0.433787162	0	0	0	0	1	-360	360;
	1	3	0.001	0.00242361111	0	5.11813541	0	0	0	0	1	-360	360;
	3	4	0.007125	0.00292361111	0	0.457092138	0	0	0	0	1	-360	360;
	3	5	0.00514583333	0.00323611111	0	0.43150211	0	0	0	0	1	-360	360;
	3	6	0.00366666667	0.00325	0	1.09011894	0	0	0	0	1	-360	360;
	6	7	0.00248611111	0.00218055556	0	1.02466689	0	0	0	0	1	-360	360;
	7	8	0.0141111111	0.00554166667	0	0.436666051	0	0	0	0	1	-360	360;
	7	9	0.00348611111	0.0030625	0	0.88589732	0	0	0	0	1	-360	360;
	9	10	0.00258333333	0.00227083333	0	0.829705432	0	0	0	0	1	-360	360;
	10	11	0.0099375	0.0069375	0	0.445369072	0	0	0	0	1	-360	360;
	10	12	0.00297916667	0.00261805556	0	0.652981478	0	0	0	0	1	-360	360;
	12	13	0.00465972222	0.00178472222	0	0.433787162	0	0	0	0	1	-360	360;
	12	14	0.00317361111	0.00278472222	0	0.59687865	0	0	0	0	1	-360	360;
	14	15	0.007	0.00267361111	0	0.432861874	0	0	0	0	1	-360	360;
	14	16	0.0010625	0.000930555556	0	0.549262561	0	0	0	0	1	-360	360;
	16	17	0.00674305556	0.00501388889	0	0.504403432	0	0	0	0	1	-360	360;
	17	18	0.0130902778	0.00500694444	0	0.44276913	0	0	0	0	1	-360	360;
	3	19	0.000958333333	0.00231944444	0	3.89123888	0	0	0	0	1	-360	360;
	19	20	0.00174305556	0.000666666667	0	0.435297028	0	0	0	0	1	-360	360;
	20	21	0.012625	0.00482638889	0	0.435297028	0	0	0	0	1	-360	360;
	19	22	0.0015625	0.00376388889	0	3.80671371	0	0	0	0	1	-360	360;
	22	23	0.000881944444	0.000194444444	0	0.464182143	0	0	0	0	1	-360	360;
	22	24	0.00197222222	0.00477083333	0	3.625671	0	0	0	0	1	-360	360;
	24	25	0.0011875	0.002875	0	3.49164627	0	0	0	0	1	-360	360;
	25	26	0.002875	0.00268055556	0	0.493237977	0	0	0	0	1	-360	360;
	26	27	0.00145833333	0.00136111111	0	0.464182143	0	0	0	0	1	-360	360;
	27	28	0.00274305556	0.0025625	0	0.446539923	0	0	0	0	1	-360	360;
	28	29	0.00172222222	0.00161111111	0	0.432861874	0	0	0	0	1	-360	360;
	29	30	0.0019375	0.00180555556	0	0.432861874	0	0	0	0	1	-360	360;
	25	31	0.00142361111	0.0034375	0	3.2465903	0	0	0	0	1	-360	360;
	31	32	0.00182638889	0.000506944444	0	0.458063972	0	0	0	0	1	-360	360;
	31	33	0.000493055556	0.0011875	0	2.78422371	0	0	0	0	1	-360	360;
	33	34	0.00434027778	0.00189583333	0	0.445369072	0	0	0	0	1	-360	360;
	33	35	0.00354166667	0.00145138889	0	0.665324049	0	0	0	0	1	-360	360;
	35	36	0.0140138889	0.00575694444	0	0.571101061	0	0	0	0	1	-360	360;
	33	37	0.007375	0.00281944444	0	0.568418939	0	0	0	0	1	-360	360;
	37	38	0.00423611111	0.00165277778	0	0.479052212	0	0	0	0	1	-360	360;
	38	39	0.0163125	0.00669444444	0	0.428824264	0	0	0	0	1	-360	360;
	33	40	0.000798611111	0.00193055556	0	1.70273536	0	0	0	0	1	-360	360;
	40	41	0.00110416667	0.00266666667	0	0.615078726	0	0	0	0	1	-360	360;
	41	42	0.00648611111	0.00265972222	0	0.441367423	0	0	0	0	1	-360	360;
	41	43	0.00351388889	0.00113194444	0	0.433787162	0	0	0	0	1	-360	360;
	41	44	0.000659722222	0.00135416667	0	0.426907484	0	0	0	0	1	-360	360;
	41	45	0.0132986111	0.00534027778	0	0.463653761	0	0	0	0	1	-360	360;
	40	46	0.00109027778	0.00263194444	0	1.2205441	0	0	0	0	1	-360	360;
	46	47	0.0113958333	0.00465277778	0	0.502258061	0	0	0	0	1	-360	360;
	46	48	0.0005625	0.00136111111	0	0.922787955	0	0	0	0	1	-360	360;
	48	49	0.0119930556	0.00492361111	0	0.431208259	0	0	0	0	1	-360	360;
	48	50	0.000777777778	0.001875	0	0.869384278	0	0	0	0	1	-360	360;
	50	51	0.00468055556	0.00190972222	0	0.602567475	0	0	0	0	1	-360	360;
	50	52	0.000486111111	0.00118055556	0	0.540870049	0	0	0	0	1	-360	360;
	52	53	0.0141736111	0.00541666667	0	0.434777555	0	0	0	0	1	-360	360;
	52	54	0.00564583333	0.00231944444	0	0.433316353	0	0	0	0	1	-360	360;
	52	55	0.000979166667	0.00236111111	0	0.461573667	0	0	0	0	1	-360	360;
];

%%-----  OPF Data  -----%%
%% generator cost data
%	1	startup	shutdown	n	x1	y1	...	xn	yn
%	2	startup	shutdown	n	c(n-1)	...	c0
mpc.gencost = [
	2	0	0	2	30	0;
];

%% bus location
%	bus_i	x	y
mpc.buslocation = [
	1	1774.6961153166812	536.3425762431282;
	2	1777.8323001430026	591.3342002898601;
	3	1720.0062127852893	537.6652642773856;
	4	1743.5812319352874	592.8696772089344;
	5	1699.8641850990107	588.2101250461301;
	6	1673.1929043660305	502.3266906738281;
	7	1616.3432446071677	502.3103485107422;
	8	1588.9722003841123	447.73819732666016;
	9	1558.9606136794107	504.683837890625;
	10	1496.7161469321497	505.79864501953125;
	11	1462.2180637093093	447.13328552246094;
	12	1437.4953875645583	506.99937438964844;
	13	1400.3914541484096	448.8745422363281;
	14	1377.2474423499239	508.58192443847656;
	15	1317.6718315447129	451.0491943359375;
	16	1316.290582879864	508.82120184667906;
	17	1258.3263713868173	508.0063557307269;
	18	1214.1048401363346	455.10442104815286;
	19	1660.905750211485	565.5850668702019;
	20	1664.6595677562334	623.0307907887815;
	21	1666.6648339075548	679.3245331204746;
	22	1605.008873146694	567.2063994934609;
	23	1606.5764790919377	620.9710126197334;
	24	1549.990974780351	567.7349925115841;
	25	1491.2527020842895	569.8545511828606;
	26	1494.8384644478658	630.9256874668738;
	27	1527.8173266268875	674.8081757552202;
	28	1561.2193413559235	719.4165777375856;
	29	1500.0588609001377	719.2830010145663;
	30	1446.0445113803119	718.722918295565;
	31	1425.8320217695327	569.1903090458993;
	32	1444.947777417371	628.6181559438626;
	33	1367.1451512453073	570.2897515505231;
	34	1393.2124659566698	624.9992673604154;
	35	1349.0639379885279	624.5496608277515;
	36	1374.8641201189243	673.5173717971766;
	37	1313.178960456893	624.1591987348647;
	38	1332.935588495347	675.4973560680164;
	39	1353.9785421995625	725.6216788649081;
	40	1300.943241405342	571.7455631539542;
	41	1266.75069098844	619.4372399953033;
	42	1289.1422556452937	678.7802034197978;
	43	1248.3648471570502	680.0620387532399;
	44	1213.291040628386	679.1382904806958;
	45	1181.3068532172115	665.1603797270454;
	46	1241.6535773778419	572.2717352771949;
	47	1204.4809225375707	610.2125741060954;
	48	1198.7214517282196	534.6004500513689;
	49	1165.3064882194728	583.3063167898181;
	50	1156.0140610307806	495.4571139194502;
	51	1133.3571668727616	554.9238943667569;
	52	1120.1869237969877	457.3788766927521;
	53	1100.8281372625415	532.1916805912108;
	54	1066.4522616719657	505.62301082943736;
	55	1055.4253350719753	457.9211145084248;
	56	1831.46845416046	536.5363147177136;
];

